<?xml version="1.0" encoding="UTF-8"?>

<!-- generated on 2024-11-28 18:58:18 by Eclipse SUMO netedit Version 1.20.0
<configuration xmlns:xsi="http://www.w3.org/2001/XMLSchema-instance" xsi:noNamespaceSchemaLocation="http://sumo.dlr.de/xsd/neteditConfiguration.xsd">

    <input>
        <sumocfg-file value="C:\Users\yeonh\Desktop\Research\Sumo\Expand\osm.sumocfg"/>
        <route-files value="C:\Users\yeonh\Desktop\Research\Sumo\Expand\osm.rou.xml"/>
        <sumo-net-file value="C:\Users\yeonh\Desktop\Research\Sumo\Expand\osm.net.xml"/>
    </input>

    <output>
        <output-file value="C:\Users\yeonh\Desktop\Research\Sumo\Expand\osm.net.xml"/>
    </output>

    <processing>
        <offset.disable-normalization value="true"/>
    </processing>

    <junctions>
        <no-turnarounds value="true"/>
    </junctions>

    <netedit>
        <new-network value="false"/>
    </netedit>

</configuration>
-->

<net version="1.20" junctionCornerDetail="5" limitTurnSpeed="5.50" xmlns:xsi="http://www.w3.org/2001/XMLSchema-instance" xsi:noNamespaceSchemaLocation="http://sumo.dlr.de/xsd/net_file.xsd">

    <location netOffset="0.00,0.00" convBoundary="-250.00,-50.00,250.00,200.00" origBoundary="10000000000.00,10000000000.00,-10000000000.00,-10000000000.00" projParameter="!"/>

    <edge id=":AA_0" function="internal">
        <lane id=":AA_0_0" index="0" speed="13.89" length="11.20" shape="148.40,4.00 148.40,-7.20"/>
    </edge>
    <edge id=":AA_1" function="internal">
        <lane id=":AA_1_0" index="0" speed="6.51" length="4.11" shape="148.40,4.00 148.75,1.55 149.59,0.15"/>
    </edge>
    <edge id=":AA_4" function="internal">
        <lane id=":AA_4_0" index="0" speed="6.51" length="4.93" shape="149.59,0.15 149.80,-0.20 151.55,-1.25 154.00,-1.60"/>
    </edge>
    <edge id=":AA_2" function="internal">
        <lane id=":AA_2_0" index="0" speed="6.51" length="9.03" shape="142.80,-1.60 145.25,-1.95 147.00,-3.00 148.05,-4.75 148.40,-7.20"/>
    </edge>
    <edge id=":AA_3" function="internal">
        <lane id=":AA_3_0" index="0" speed="13.89" length="11.20" shape="142.80,-1.60 154.00,-1.60"/>
    </edge>
    <edge id=":F_0" function="internal">
        <lane id=":F_0_0" index="0" speed="13.89" length="11.20" shape="-151.60,154.00 -151.60,142.80"/>
    </edge>
    <edge id=":F_1" function="internal">
        <lane id=":F_1_0" index="0" speed="6.51" length="4.11" shape="-151.60,154.00 -151.25,151.55 -150.41,150.15"/>
    </edge>
    <edge id=":F_4" function="internal">
        <lane id=":F_4_0" index="0" speed="6.51" length="4.93" shape="-150.41,150.15 -150.20,149.80 -148.45,148.75 -146.00,148.40"/>
    </edge>
    <edge id=":F_2" function="internal">
        <lane id=":F_2_0" index="0" speed="6.51" length="9.03" shape="-157.20,148.40 -154.75,148.05 -153.00,147.00 -151.95,145.25 -151.60,142.80"/>
    </edge>
    <edge id=":F_3" function="internal">
        <lane id=":F_3_0" index="0" speed="13.89" length="11.20" shape="-157.20,148.40 -146.00,148.40"/>
    </edge>
    <edge id=":G_0" function="internal">
        <lane id=":G_0_0" index="0" speed="13.89" length="11.20" shape="-151.60,104.00 -151.60,92.80"/>
    </edge>
    <edge id=":G_1" function="internal">
        <lane id=":G_1_0" index="0" speed="6.51" length="4.11" shape="-151.60,104.00 -151.25,101.55 -150.41,100.15"/>
    </edge>
    <edge id=":G_4" function="internal">
        <lane id=":G_4_0" index="0" speed="6.51" length="4.93" shape="-150.41,100.15 -150.20,99.80 -148.45,98.75 -146.00,98.40"/>
    </edge>
    <edge id=":G_2" function="internal">
        <lane id=":G_2_0" index="0" speed="6.51" length="9.03" shape="-157.20,98.40 -154.75,98.05 -153.00,97.00 -151.95,95.25 -151.60,92.80"/>
    </edge>
    <edge id=":G_3" function="internal">
        <lane id=":G_3_0" index="0" speed="13.89" length="11.20" shape="-157.20,98.40 -146.00,98.40"/>
    </edge>
    <edge id=":H_0" function="internal">
        <lane id=":H_0_0" index="0" speed="13.89" length="11.20" shape="-151.60,54.00 -151.60,42.80"/>
    </edge>
    <edge id=":H_1" function="internal">
        <lane id=":H_1_0" index="0" speed="6.51" length="4.11" shape="-151.60,54.00 -151.25,51.55 -150.41,50.15"/>
    </edge>
    <edge id=":H_4" function="internal">
        <lane id=":H_4_0" index="0" speed="6.51" length="4.93" shape="-150.41,50.15 -150.20,49.80 -148.45,48.75 -146.00,48.40"/>
    </edge>
    <edge id=":H_2" function="internal">
        <lane id=":H_2_0" index="0" speed="6.51" length="9.03" shape="-157.20,48.40 -154.75,48.05 -153.00,47.00 -151.95,45.25 -151.60,42.80"/>
    </edge>
    <edge id=":H_3" function="internal">
        <lane id=":H_3_0" index="0" speed="13.89" length="11.20" shape="-157.20,48.40 -146.00,48.40"/>
    </edge>
    <edge id=":I_0" function="internal">
        <lane id=":I_0_0" index="0" speed="13.89" length="11.20" shape="-151.60,4.00 -151.60,-7.20"/>
    </edge>
    <edge id=":I_1" function="internal">
        <lane id=":I_1_0" index="0" speed="6.51" length="4.11" shape="-151.60,4.00 -151.25,1.55 -150.41,0.15"/>
    </edge>
    <edge id=":I_4" function="internal">
        <lane id=":I_4_0" index="0" speed="6.51" length="4.93" shape="-150.41,0.15 -150.20,-0.20 -148.45,-1.25 -146.00,-1.60"/>
    </edge>
    <edge id=":I_2" function="internal">
        <lane id=":I_2_0" index="0" speed="6.51" length="9.03" shape="-157.20,-1.60 -154.75,-1.95 -153.00,-3.00 -151.95,-4.75 -151.60,-7.20"/>
    </edge>
    <edge id=":I_3" function="internal">
        <lane id=":I_3_0" index="0" speed="13.89" length="11.20" shape="-157.20,-1.60 -146.00,-1.60"/>
    </edge>
    <edge id=":L_0" function="internal">
        <lane id=":L_0_0" index="0" speed="13.89" length="11.20" shape="-51.60,154.00 -51.60,142.80"/>
    </edge>
    <edge id=":L_1" function="internal">
        <lane id=":L_1_0" index="0" speed="6.51" length="4.11" shape="-51.60,154.00 -51.25,151.55 -50.41,150.15"/>
    </edge>
    <edge id=":L_4" function="internal">
        <lane id=":L_4_0" index="0" speed="6.51" length="4.93" shape="-50.41,150.15 -50.20,149.80 -48.45,148.75 -46.00,148.40"/>
    </edge>
    <edge id=":L_2" function="internal">
        <lane id=":L_2_0" index="0" speed="6.51" length="9.03" shape="-57.20,148.40 -54.75,148.05 -53.00,147.00 -51.95,145.25 -51.60,142.80"/>
    </edge>
    <edge id=":L_3" function="internal">
        <lane id=":L_3_0" index="0" speed="13.89" length="11.20" shape="-57.20,148.40 -46.00,148.40"/>
    </edge>
    <edge id=":M_0" function="internal">
        <lane id=":M_0_0" index="0" speed="13.89" length="11.20" shape="-51.60,104.00 -51.60,92.80"/>
    </edge>
    <edge id=":M_1" function="internal">
        <lane id=":M_1_0" index="0" speed="6.51" length="4.11" shape="-51.60,104.00 -51.25,101.55 -50.41,100.15"/>
    </edge>
    <edge id=":M_4" function="internal">
        <lane id=":M_4_0" index="0" speed="6.51" length="4.93" shape="-50.41,100.15 -50.20,99.80 -48.45,98.75 -46.00,98.40"/>
    </edge>
    <edge id=":M_2" function="internal">
        <lane id=":M_2_0" index="0" speed="6.51" length="9.03" shape="-57.20,98.40 -54.75,98.05 -53.00,97.00 -51.95,95.25 -51.60,92.80"/>
    </edge>
    <edge id=":M_3" function="internal">
        <lane id=":M_3_0" index="0" speed="13.89" length="11.20" shape="-57.20,98.40 -46.00,98.40"/>
    </edge>
    <edge id=":N_0" function="internal">
        <lane id=":N_0_0" index="0" speed="13.89" length="11.20" shape="-51.60,54.00 -51.60,42.80"/>
    </edge>
    <edge id=":N_1" function="internal">
        <lane id=":N_1_0" index="0" speed="6.51" length="4.11" shape="-51.60,54.00 -51.25,51.55 -50.41,50.15"/>
    </edge>
    <edge id=":N_4" function="internal">
        <lane id=":N_4_0" index="0" speed="6.51" length="4.93" shape="-50.41,50.15 -50.20,49.80 -48.45,48.75 -46.00,48.40"/>
    </edge>
    <edge id=":N_2" function="internal">
        <lane id=":N_2_0" index="0" speed="6.51" length="9.03" shape="-57.20,48.40 -54.75,48.05 -53.00,47.00 -51.95,45.25 -51.60,42.80"/>
    </edge>
    <edge id=":N_3" function="internal">
        <lane id=":N_3_0" index="0" speed="13.89" length="11.20" shape="-57.20,48.40 -46.00,48.40"/>
    </edge>
    <edge id=":O_0" function="internal">
        <lane id=":O_0_0" index="0" speed="13.89" length="11.20" shape="-51.60,4.00 -51.60,-7.20"/>
    </edge>
    <edge id=":O_1" function="internal">
        <lane id=":O_1_0" index="0" speed="6.51" length="4.11" shape="-51.60,4.00 -51.25,1.55 -50.41,0.15"/>
    </edge>
    <edge id=":O_4" function="internal">
        <lane id=":O_4_0" index="0" speed="6.51" length="4.93" shape="-50.41,0.15 -50.20,-0.20 -48.45,-1.25 -46.00,-1.60"/>
    </edge>
    <edge id=":O_2" function="internal">
        <lane id=":O_2_0" index="0" speed="6.51" length="9.03" shape="-57.20,-1.60 -54.75,-1.95 -53.00,-3.00 -51.95,-4.75 -51.60,-7.20"/>
    </edge>
    <edge id=":O_3" function="internal">
        <lane id=":O_3_0" index="0" speed="13.89" length="11.20" shape="-57.20,-1.60 -46.00,-1.60"/>
    </edge>
    <edge id=":R_0" function="internal">
        <lane id=":R_0_0" index="0" speed="13.89" length="11.20" shape="48.40,154.00 48.40,142.80"/>
    </edge>
    <edge id=":R_1" function="internal">
        <lane id=":R_1_0" index="0" speed="6.51" length="4.11" shape="48.40,154.00 48.75,151.55 49.59,150.15"/>
    </edge>
    <edge id=":R_4" function="internal">
        <lane id=":R_4_0" index="0" speed="6.51" length="4.93" shape="49.59,150.15 49.80,149.80 51.55,148.75 54.00,148.40"/>
    </edge>
    <edge id=":R_2" function="internal">
        <lane id=":R_2_0" index="0" speed="6.51" length="9.03" shape="42.80,148.40 45.25,148.05 47.00,147.00 48.05,145.25 48.40,142.80"/>
    </edge>
    <edge id=":R_3" function="internal">
        <lane id=":R_3_0" index="0" speed="13.89" length="11.20" shape="42.80,148.40 54.00,148.40"/>
    </edge>
    <edge id=":S_0" function="internal">
        <lane id=":S_0_0" index="0" speed="13.89" length="11.20" shape="48.40,104.00 48.40,92.80"/>
    </edge>
    <edge id=":S_1" function="internal">
        <lane id=":S_1_0" index="0" speed="6.51" length="4.11" shape="48.40,104.00 48.75,101.55 49.59,100.15"/>
    </edge>
    <edge id=":S_4" function="internal">
        <lane id=":S_4_0" index="0" speed="6.51" length="4.93" shape="49.59,100.15 49.80,99.80 51.55,98.75 54.00,98.40"/>
    </edge>
    <edge id=":S_2" function="internal">
        <lane id=":S_2_0" index="0" speed="6.51" length="9.03" shape="42.80,98.40 45.25,98.05 47.00,97.00 48.05,95.25 48.40,92.80"/>
    </edge>
    <edge id=":S_3" function="internal">
        <lane id=":S_3_0" index="0" speed="13.89" length="11.20" shape="42.80,98.40 54.00,98.40"/>
    </edge>
    <edge id=":T_0" function="internal">
        <lane id=":T_0_0" index="0" speed="13.89" length="11.20" shape="48.40,54.00 48.40,42.80"/>
    </edge>
    <edge id=":T_1" function="internal">
        <lane id=":T_1_0" index="0" speed="6.51" length="4.11" shape="48.40,54.00 48.75,51.55 49.59,50.15"/>
    </edge>
    <edge id=":T_4" function="internal">
        <lane id=":T_4_0" index="0" speed="6.51" length="4.93" shape="49.59,50.15 49.80,49.80 51.55,48.75 54.00,48.40"/>
    </edge>
    <edge id=":T_2" function="internal">
        <lane id=":T_2_0" index="0" speed="6.51" length="9.03" shape="42.80,48.40 45.25,48.05 47.00,47.00 48.05,45.25 48.40,42.80"/>
    </edge>
    <edge id=":T_3" function="internal">
        <lane id=":T_3_0" index="0" speed="13.89" length="11.20" shape="42.80,48.40 54.00,48.40"/>
    </edge>
    <edge id=":U_0" function="internal">
        <lane id=":U_0_0" index="0" speed="13.89" length="11.20" shape="48.40,4.00 48.40,-7.20"/>
    </edge>
    <edge id=":U_1" function="internal">
        <lane id=":U_1_0" index="0" speed="6.51" length="4.11" shape="48.40,4.00 48.75,1.55 49.59,0.15"/>
    </edge>
    <edge id=":U_4" function="internal">
        <lane id=":U_4_0" index="0" speed="6.51" length="4.93" shape="49.59,0.15 49.80,-0.20 51.55,-1.25 54.00,-1.60"/>
    </edge>
    <edge id=":U_2" function="internal">
        <lane id=":U_2_0" index="0" speed="6.51" length="9.03" shape="42.80,-1.60 45.25,-1.95 47.00,-3.00 48.05,-4.75 48.40,-7.20"/>
    </edge>
    <edge id=":U_3" function="internal">
        <lane id=":U_3_0" index="0" speed="13.89" length="11.20" shape="42.80,-1.60 54.00,-1.60"/>
    </edge>
    <edge id=":X_0" function="internal">
        <lane id=":X_0_0" index="0" speed="13.89" length="11.20" shape="148.40,154.00 148.40,142.80"/>
    </edge>
    <edge id=":X_1" function="internal">
        <lane id=":X_1_0" index="0" speed="6.51" length="4.11" shape="148.40,154.00 148.75,151.55 149.59,150.15"/>
    </edge>
    <edge id=":X_4" function="internal">
        <lane id=":X_4_0" index="0" speed="6.51" length="4.93" shape="149.59,150.15 149.80,149.80 151.55,148.75 154.00,148.40"/>
    </edge>
    <edge id=":X_2" function="internal">
        <lane id=":X_2_0" index="0" speed="6.51" length="9.03" shape="142.80,148.40 145.25,148.05 147.00,147.00 148.05,145.25 148.40,142.80"/>
    </edge>
    <edge id=":X_3" function="internal">
        <lane id=":X_3_0" index="0" speed="13.89" length="11.20" shape="142.80,148.40 154.00,148.40"/>
    </edge>
    <edge id=":Y_0" function="internal">
        <lane id=":Y_0_0" index="0" speed="13.89" length="11.20" shape="148.40,104.00 148.40,92.80"/>
    </edge>
    <edge id=":Y_1" function="internal">
        <lane id=":Y_1_0" index="0" speed="6.51" length="4.11" shape="148.40,104.00 148.75,101.55 149.59,100.15"/>
    </edge>
    <edge id=":Y_4" function="internal">
        <lane id=":Y_4_0" index="0" speed="6.51" length="4.93" shape="149.59,100.15 149.80,99.80 151.55,98.75 154.00,98.40"/>
    </edge>
    <edge id=":Y_2" function="internal">
        <lane id=":Y_2_0" index="0" speed="6.51" length="9.03" shape="142.80,98.40 145.25,98.05 147.00,97.00 148.05,95.25 148.40,92.80"/>
    </edge>
    <edge id=":Y_3" function="internal">
        <lane id=":Y_3_0" index="0" speed="13.89" length="11.20" shape="142.80,98.40 154.00,98.40"/>
    </edge>
    <edge id=":Z_0" function="internal">
        <lane id=":Z_0_0" index="0" speed="13.89" length="11.20" shape="148.40,54.00 148.40,42.80"/>
    </edge>
    <edge id=":Z_1" function="internal">
        <lane id=":Z_1_0" index="0" speed="6.51" length="4.11" shape="148.40,54.00 148.75,51.55 149.59,50.15"/>
    </edge>
    <edge id=":Z_4" function="internal">
        <lane id=":Z_4_0" index="0" speed="6.51" length="4.93" shape="149.59,50.15 149.80,49.80 151.55,48.75 154.00,48.40"/>
    </edge>
    <edge id=":Z_2" function="internal">
        <lane id=":Z_2_0" index="0" speed="6.51" length="9.03" shape="142.80,48.40 145.25,48.05 147.00,47.00 148.05,45.25 148.40,42.80"/>
    </edge>
    <edge id=":Z_3" function="internal">
        <lane id=":Z_3_0" index="0" speed="13.89" length="11.20" shape="142.80,48.40 154.00,48.40"/>
    </edge>

    <edge id="E0" from="A" to="F" priority="-1">
        <lane id="E0_0" index="0" speed="13.89" length="92.80" shape="-250.00,148.40 -157.20,148.40"/>
    </edge>
    <edge id="E1" from="F" to="L" priority="-1">
        <lane id="E1_0" index="0" speed="13.89" length="88.80" shape="-146.00,148.40 -57.20,148.40"/>
    </edge>
    <edge id="E10" from="C" to="H" priority="-1">
        <lane id="E10_0" index="0" speed="13.89" length="92.80" shape="-250.00,48.40 -157.20,48.40"/>
    </edge>
    <edge id="E11" from="H" to="N" priority="-1">
        <lane id="E11_0" index="0" speed="13.89" length="88.80" shape="-146.00,48.40 -57.20,48.40"/>
    </edge>
    <edge id="E12" from="N" to="T" priority="-1">
        <lane id="E12_0" index="0" speed="13.89" length="88.80" shape="-46.00,48.40 42.80,48.40"/>
    </edge>
    <edge id="E13" from="T" to="Z" priority="-1">
        <lane id="E13_0" index="0" speed="13.89" length="88.80" shape="54.00,48.40 142.80,48.40"/>
    </edge>
    <edge id="E14" from="Z" to="EE" priority="-1">
        <lane id="E14_0" index="0" speed="13.89" length="96.00" shape="154.00,48.40 250.00,48.40"/>
    </edge>
    <edge id="E15" from="D" to="I" priority="-1">
        <lane id="E15_0" index="0" speed="13.89" length="92.80" shape="-250.00,-1.60 -157.20,-1.60"/>
    </edge>
    <edge id="E16" from="I" to="O" priority="-1">
        <lane id="E16_0" index="0" speed="13.89" length="88.80" shape="-146.00,-1.60 -57.20,-1.60"/>
    </edge>
    <edge id="E17" from="O" to="U" priority="-1">
        <lane id="E17_0" index="0" speed="13.89" length="88.80" shape="-46.00,-1.60 42.80,-1.60"/>
    </edge>
    <edge id="E18" from="U" to="AA" priority="-1">
        <lane id="E18_0" index="0" speed="13.89" length="88.80" shape="54.00,-1.60 142.80,-1.60"/>
    </edge>
    <edge id="E19" from="AA" to="FF" priority="-1">
        <lane id="E19_0" index="0" speed="13.89" length="96.00" shape="154.00,-1.60 250.00,-1.60"/>
    </edge>
    <edge id="E2" from="L" to="R" priority="-1">
        <lane id="E2_0" index="0" speed="13.89" length="88.80" shape="-46.00,148.40 42.80,148.40"/>
    </edge>
    <edge id="E20" from="E" to="F" priority="-1">
        <lane id="E20_0" index="0" speed="13.89" length="46.00" shape="-151.60,200.00 -151.60,154.00"/>
    </edge>
    <edge id="E21" from="F" to="G" priority="-1">
        <lane id="E21_0" index="0" speed="13.89" length="38.80" shape="-151.60,142.80 -151.60,104.00"/>
    </edge>
    <edge id="E22" from="G" to="H" priority="-1">
        <lane id="E22_0" index="0" speed="13.89" length="38.80" shape="-151.60,92.80 -151.60,54.00"/>
    </edge>
    <edge id="E23" from="H" to="I" priority="-1">
        <lane id="E23_0" index="0" speed="13.89" length="38.80" shape="-151.60,42.80 -151.60,4.00"/>
    </edge>
    <edge id="E24" from="I" to="J" priority="-1">
        <lane id="E24_0" index="0" speed="13.89" length="42.80" shape="-151.60,-7.20 -151.60,-50.00"/>
    </edge>
    <edge id="E25" from="K" to="L" priority="-1">
        <lane id="E25_0" index="0" speed="13.89" length="46.00" shape="-51.60,200.00 -51.60,154.00"/>
    </edge>
    <edge id="E26" from="L" to="M" priority="-1">
        <lane id="E26_0" index="0" speed="13.89" length="38.80" shape="-51.60,142.80 -51.60,104.00"/>
    </edge>
    <edge id="E27" from="M" to="N" priority="-1">
        <lane id="E27_0" index="0" speed="13.89" length="38.80" shape="-51.60,92.80 -51.60,54.00"/>
    </edge>
    <edge id="E28" from="N" to="O" priority="-1">
        <lane id="E28_0" index="0" speed="13.89" length="38.80" shape="-51.60,42.80 -51.60,4.00"/>
    </edge>
    <edge id="E29" from="O" to="P" priority="-1">
        <lane id="E29_0" index="0" speed="13.89" length="42.80" shape="-51.60,-7.20 -51.60,-50.00"/>
    </edge>
    <edge id="E3" from="R" to="X" priority="-1">
        <lane id="E3_0" index="0" speed="13.89" length="88.80" shape="54.00,148.40 142.80,148.40"/>
    </edge>
    <edge id="E30" from="Q" to="R" priority="-1">
        <lane id="E30_0" index="0" speed="13.89" length="46.00" shape="48.40,200.00 48.40,154.00"/>
    </edge>
    <edge id="E31" from="R" to="S" priority="-1">
        <lane id="E31_0" index="0" speed="13.89" length="38.80" shape="48.40,142.80 48.40,104.00"/>
    </edge>
    <edge id="E32" from="S" to="T" priority="-1">
        <lane id="E32_0" index="0" speed="13.89" length="38.80" shape="48.40,92.80 48.40,54.00"/>
    </edge>
    <edge id="E33" from="T" to="U" priority="-1">
        <lane id="E33_0" index="0" speed="13.89" length="38.80" shape="48.40,42.80 48.40,4.00"/>
    </edge>
    <edge id="E34" from="U" to="V" priority="-1">
        <lane id="E34_0" index="0" speed="13.89" length="42.80" shape="48.40,-7.20 48.40,-50.00"/>
    </edge>
    <edge id="E35" from="W" to="X" priority="-1">
        <lane id="E35_0" index="0" speed="13.89" length="46.00" shape="148.40,200.00 148.40,154.00"/>
    </edge>
    <edge id="E36" from="X" to="Y" priority="-1">
        <lane id="E36_0" index="0" speed="13.89" length="38.80" shape="148.40,142.80 148.40,104.00"/>
    </edge>
    <edge id="E37" from="Y" to="Z" priority="-1">
        <lane id="E37_0" index="0" speed="13.89" length="38.80" shape="148.40,92.80 148.40,54.00"/>
    </edge>
    <edge id="E38" from="Z" to="AA" priority="-1">
        <lane id="E38_0" index="0" speed="13.89" length="38.80" shape="148.40,42.80 148.40,4.00"/>
    </edge>
    <edge id="E39" from="AA" to="BB" priority="-1">
        <lane id="E39_0" index="0" speed="13.89" length="42.80" shape="148.40,-7.20 148.40,-50.00"/>
    </edge>
    <edge id="E4" from="X" to="CC" priority="-1">
        <lane id="E4_0" index="0" speed="13.89" length="96.00" shape="154.00,148.40 250.00,148.40"/>
    </edge>
    <edge id="E5" from="B" to="G" priority="-1">
        <lane id="E5_0" index="0" speed="13.89" length="92.80" shape="-250.00,98.40 -157.20,98.40"/>
    </edge>
    <edge id="E6" from="G" to="M" priority="-1">
        <lane id="E6_0" index="0" speed="13.89" length="88.80" shape="-146.00,98.40 -57.20,98.40"/>
    </edge>
    <edge id="E7" from="M" to="S" priority="-1">
        <lane id="E7_0" index="0" speed="13.89" length="88.80" shape="-46.00,98.40 42.80,98.40"/>
    </edge>
    <edge id="E8" from="S" to="Y" priority="-1">
        <lane id="E8_0" index="0" speed="13.89" length="88.80" shape="54.00,98.40 142.80,98.40"/>
    </edge>
    <edge id="E9" from="Y" to="DD" priority="-1">
        <lane id="E9_0" index="0" speed="13.89" length="96.00" shape="154.00,98.40 250.00,98.40"/>
    </edge>

    <junction id="A" type="dead_end" x="-250.00" y="150.00" incLanes="" intLanes="" shape="-250.00,150.00 -250.00,146.80"/>
    <junction id="AA" type="priority" x="150.00" y="0.00" incLanes="E38_0 E18_0" intLanes=":AA_0_0 :AA_4_0 :AA_2_0 :AA_3_0" shape="146.80,4.00 150.00,4.00 150.44,1.78 151.00,1.00 151.78,0.44 152.78,0.11 154.00,0.00 154.00,-3.20 151.78,-3.64 151.00,-4.20 150.44,-4.98 150.11,-5.98 150.00,-7.20 146.80,-7.20 146.36,-4.98 145.80,-4.20 145.02,-3.64 144.02,-3.31 142.80,-3.20 142.80,0.00 145.02,0.44 145.80,1.00 146.36,1.78 146.69,2.78">
        <request index="0" response="1100" foes="1100" cont="0"/>
        <request index="1" response="1000" foes="1000" cont="1"/>
        <request index="2" response="0000" foes="0001" cont="0"/>
        <request index="3" response="0000" foes="0011" cont="0"/>
    </junction>
    <junction id="B" type="dead_end" x="-250.00" y="100.00" incLanes="" intLanes="" shape="-250.00,100.00 -250.00,96.80"/>
    <junction id="BB" type="dead_end" x="150.00" y="-50.00" incLanes="E39_0" intLanes="" shape="146.80,-50.00 150.00,-50.00"/>
    <junction id="C" type="dead_end" x="-250.00" y="50.00" incLanes="" intLanes="" shape="-250.00,50.00 -250.00,46.80"/>
    <junction id="CC" type="dead_end" x="250.00" y="150.00" incLanes="E4_0" intLanes="" shape="250.00,146.80 250.00,150.00"/>
    <junction id="D" type="dead_end" x="-250.00" y="0.00" incLanes="" intLanes="" shape="-250.00,0.00 -250.00,-3.20"/>
    <junction id="DD" type="dead_end" x="250.00" y="100.00" incLanes="E9_0" intLanes="" shape="250.00,96.80 250.00,100.00"/>
    <junction id="E" type="dead_end" x="-150.00" y="200.00" incLanes="" intLanes="" shape="-150.00,200.00 -153.20,200.00"/>
    <junction id="EE" type="dead_end" x="250.00" y="50.00" incLanes="E14_0" intLanes="" shape="250.00,46.80 250.00,50.00"/>
    <junction id="F" type="priority" x="-150.00" y="150.00" incLanes="E20_0 E0_0" intLanes=":F_0_0 :F_4_0 :F_2_0 :F_3_0" shape="-153.20,154.00 -150.00,154.00 -149.56,151.78 -149.00,151.00 -148.22,150.44 -147.22,150.11 -146.00,150.00 -146.00,146.80 -148.22,146.36 -149.00,145.80 -149.56,145.02 -149.89,144.02 -150.00,142.80 -153.20,142.80 -153.64,145.02 -154.20,145.80 -154.98,146.36 -155.98,146.69 -157.20,146.80 -157.20,150.00 -154.98,150.44 -154.20,151.00 -153.64,151.78 -153.31,152.78">
        <request index="0" response="1100" foes="1100" cont="0"/>
        <request index="1" response="1000" foes="1000" cont="1"/>
        <request index="2" response="0000" foes="0001" cont="0"/>
        <request index="3" response="0000" foes="0011" cont="0"/>
    </junction>
    <junction id="FF" type="dead_end" x="250.00" y="0.00" incLanes="E19_0" intLanes="" shape="250.00,-3.20 250.00,0.00"/>
    <junction id="G" type="priority" x="-150.00" y="100.00" incLanes="E21_0 E5_0" intLanes=":G_0_0 :G_4_0 :G_2_0 :G_3_0" shape="-153.20,104.00 -150.00,104.00 -149.56,101.78 -149.00,101.00 -148.22,100.44 -147.22,100.11 -146.00,100.00 -146.00,96.80 -148.22,96.36 -149.00,95.80 -149.56,95.02 -149.89,94.02 -150.00,92.80 -153.20,92.80 -153.64,95.02 -154.20,95.80 -154.98,96.36 -155.98,96.69 -157.20,96.80 -157.20,100.00 -154.98,100.44 -154.20,101.00 -153.64,101.78 -153.31,102.78">
        <request index="0" response="1100" foes="1100" cont="0"/>
        <request index="1" response="1000" foes="1000" cont="1"/>
        <request index="2" response="0000" foes="0001" cont="0"/>
        <request index="3" response="0000" foes="0011" cont="0"/>
    </junction>
    <junction id="H" type="priority" x="-150.00" y="50.00" incLanes="E22_0 E10_0" intLanes=":H_0_0 :H_4_0 :H_2_0 :H_3_0" shape="-153.20,54.00 -150.00,54.00 -149.56,51.78 -149.00,51.00 -148.22,50.44 -147.22,50.11 -146.00,50.00 -146.00,46.80 -148.22,46.36 -149.00,45.80 -149.56,45.02 -149.89,44.02 -150.00,42.80 -153.20,42.80 -153.64,45.02 -154.20,45.80 -154.98,46.36 -155.98,46.69 -157.20,46.80 -157.20,50.00 -154.98,50.44 -154.20,51.00 -153.64,51.78 -153.31,52.78">
        <request index="0" response="1100" foes="1100" cont="0"/>
        <request index="1" response="1000" foes="1000" cont="1"/>
        <request index="2" response="0000" foes="0001" cont="0"/>
        <request index="3" response="0000" foes="0011" cont="0"/>
    </junction>
    <junction id="I" type="priority" x="-150.00" y="0.00" incLanes="E23_0 E15_0" intLanes=":I_0_0 :I_4_0 :I_2_0 :I_3_0" shape="-153.20,4.00 -150.00,4.00 -149.56,1.78 -149.00,1.00 -148.22,0.44 -147.22,0.11 -146.00,0.00 -146.00,-3.20 -148.22,-3.64 -149.00,-4.20 -149.56,-4.98 -149.89,-5.98 -150.00,-7.20 -153.20,-7.20 -153.64,-4.98 -154.20,-4.20 -154.98,-3.64 -155.98,-3.31 -157.20,-3.20 -157.20,0.00 -154.98,0.44 -154.20,1.00 -153.64,1.78 -153.31,2.78">
        <request index="0" response="1100" foes="1100" cont="0"/>
        <request index="1" response="1000" foes="1000" cont="1"/>
        <request index="2" response="0000" foes="0001" cont="0"/>
        <request index="3" response="0000" foes="0011" cont="0"/>
    </junction>
    <junction id="J" type="dead_end" x="-150.00" y="-50.00" incLanes="E24_0" intLanes="" shape="-153.20,-50.00 -150.00,-50.00"/>
    <junction id="K" type="dead_end" x="-50.00" y="200.00" incLanes="" intLanes="" shape="-50.00,200.00 -53.20,200.00"/>
    <junction id="L" type="priority" x="-50.00" y="150.00" incLanes="E25_0 E1_0" intLanes=":L_0_0 :L_4_0 :L_2_0 :L_3_0" shape="-53.20,154.00 -50.00,154.00 -49.56,151.78 -49.00,151.00 -48.22,150.44 -47.22,150.11 -46.00,150.00 -46.00,146.80 -48.22,146.36 -49.00,145.80 -49.56,145.02 -49.89,144.02 -50.00,142.80 -53.20,142.80 -53.64,145.02 -54.20,145.80 -54.98,146.36 -55.98,146.69 -57.20,146.80 -57.20,150.00 -54.98,150.44 -54.20,151.00 -53.64,151.78 -53.31,152.78">
        <request index="0" response="1100" foes="1100" cont="0"/>
        <request index="1" response="1000" foes="1000" cont="1"/>
        <request index="2" response="0000" foes="0001" cont="0"/>
        <request index="3" response="0000" foes="0011" cont="0"/>
    </junction>
    <junction id="M" type="priority" x="-50.00" y="100.00" incLanes="E26_0 E6_0" intLanes=":M_0_0 :M_4_0 :M_2_0 :M_3_0" shape="-53.20,104.00 -50.00,104.00 -49.56,101.78 -49.00,101.00 -48.22,100.44 -47.22,100.11 -46.00,100.00 -46.00,96.80 -48.22,96.36 -49.00,95.80 -49.56,95.02 -49.89,94.02 -50.00,92.80 -53.20,92.80 -53.64,95.02 -54.20,95.80 -54.98,96.36 -55.98,96.69 -57.20,96.80 -57.20,100.00 -54.98,100.44 -54.20,101.00 -53.64,101.78 -53.31,102.78">
        <request index="0" response="1100" foes="1100" cont="0"/>
        <request index="1" response="1000" foes="1000" cont="1"/>
        <request index="2" response="0000" foes="0001" cont="0"/>
        <request index="3" response="0000" foes="0011" cont="0"/>
    </junction>
    <junction id="N" type="priority" x="-50.00" y="50.00" incLanes="E27_0 E11_0" intLanes=":N_0_0 :N_4_0 :N_2_0 :N_3_0" shape="-53.20,54.00 -50.00,54.00 -49.56,51.78 -49.00,51.00 -48.22,50.44 -47.22,50.11 -46.00,50.00 -46.00,46.80 -48.22,46.36 -49.00,45.80 -49.56,45.02 -49.89,44.02 -50.00,42.80 -53.20,42.80 -53.64,45.02 -54.20,45.80 -54.98,46.36 -55.98,46.69 -57.20,46.80 -57.20,50.00 -54.98,50.44 -54.20,51.00 -53.64,51.78 -53.31,52.78">
        <request index="0" response="1100" foes="1100" cont="0"/>
        <request index="1" response="1000" foes="1000" cont="1"/>
        <request index="2" response="0000" foes="0001" cont="0"/>
        <request index="3" response="0000" foes="0011" cont="0"/>
    </junction>
    <junction id="O" type="priority" x="-50.00" y="0.00" incLanes="E28_0 E16_0" intLanes=":O_0_0 :O_4_0 :O_2_0 :O_3_0" shape="-53.20,4.00 -50.00,4.00 -49.56,1.78 -49.00,1.00 -48.22,0.44 -47.22,0.11 -46.00,0.00 -46.00,-3.20 -48.22,-3.64 -49.00,-4.20 -49.56,-4.98 -49.89,-5.98 -50.00,-7.20 -53.20,-7.20 -53.64,-4.98 -54.20,-4.20 -54.98,-3.64 -55.98,-3.31 -57.20,-3.20 -57.20,0.00 -54.98,0.44 -54.20,1.00 -53.64,1.78 -53.31,2.78">
        <request index="0" response="1100" foes="1100" cont="0"/>
        <request index="1" response="1000" foes="1000" cont="1"/>
        <request index="2" response="0000" foes="0001" cont="0"/>
        <request index="3" response="0000" foes="0011" cont="0"/>
    </junction>
    <junction id="P" type="dead_end" x="-50.00" y="-50.00" incLanes="E29_0" intLanes="" shape="-53.20,-50.00 -50.00,-50.00"/>
    <junction id="Q" type="dead_end" x="50.00" y="200.00" incLanes="" intLanes="" shape="50.00,200.00 46.80,200.00"/>