<?xml version="1.0" encoding="UTF-8"?>

<!-- generated on 2024-11-28 18:58:18 by Eclipse SUMO sumo Version 1.20.0
-->

<configuration xmlns:xsi="http://www.w3.org/2001/XMLSchema-instance" xsi:noNamespaceSchemaLocation="http://sumo.dlr.de/xsd/sumoConfiguration.xsd">

    <input>
        <net-file value="osm.net.xml"/>
        <route-files value="osm.rou.xml"/>
		<additional-files value="additional.xml"/>
    </input>
	
    <emissions>
        <device.emissions.probability value="1.0"/>
    </emissions>
	

	<gui_only>
        <gui-settings-file value="osm.setting.xml"/>
    </gui_only>

</configuration>
