<?xml version="1.0" encoding="UTF-8"?>

<!-- generated on 2024-11-30 04:05:36 by Eclipse SUMO duarouter Version 1.20.0
<configuration xmlns:xsi="http://www.w3.org/2001/XMLSchema-instance" xsi:noNamespaceSchemaLocation="http://sumo.dlr.de/xsd/duarouterConfiguration.xsd">

    <input>
        <net-file value="osm.net.xml"/>
        <additional-files value="osm.demand.xml"/>
    </input>

    <output>
        <output-file value="generated_routes.rou.xml"/>
    </output>

</configuration>
-->

<routes xmlns:xsi="http://www.w3.org/2001/XMLSchema-instance" xsi:noNamespaceSchemaLocation="http://sumo.dlr.de/xsd/routes_file.xsd">
    <vType id="slow_car" maxSpeed="3.00" accel="1" decel="2"/>
    <vehicle id="first_flow_0.0" type="slow_car" depart="0.00">
        <route edges="E5 E6 E7 E32 E33 E34"/>
    </vehicle>
    <vehicle id="first_flow_1.0" type="slow_car" depart="0.00">
        <route edges="E10 E11 E28 E29"/>
    </vehicle>
    <vehicle id="first_flow_2.0" type="slow_car" depart="0.00">
        <route edges="E15 E24"/>
    </vehicle>
    <vType id="fast_car" maxSpeed="10.00" accel="3" decel="6"/>
    <vehicle id="first_flow_3.0" type="fast_car" depart="0.00">
        <route edges="E25 E26 E27 E12 E13 E14"/>
    </vehicle>
    <vehicle id="first_flow_4.0" type="fast_car" depart="0.00">
        <route edges="E30 E31 E8 E9"/>
    </vehicle>
    <vehicle id="first_flow_5.0" type="fast_car" depart="0.00">
        <route edges="E35 E4"/>
    </vehicle>
    <vehicle id="first_flow_2.1" type="slow_car" depart="27.52">
        <route edges="E15 E24"/>
    </vehicle>
    <vehicle id="first_flow_1.1" type="slow_car" depart="28.57">
        <route edges="E10 E11 E28 E29"/>
    </vehicle>
    <vehicle id="first_flow_0.1" type="slow_car" depart="29.70">
        <route edges="E5 E6 E7 E32 E33 E34"/>
    </vehicle>
    <vehicle id="first_flow_5.1" type="fast_car" depart="50.85">
        <route edges="E35 E4"/>
    </vehicle>
    <vehicle id="first_flow_4.1" type="fast_car" depart="54.55">
        <route edges="E30 E31 E8 E9"/>
    </vehicle>
    <vehicle id="first_flow_2.2" type="slow_car" depart="55.04">
        <route edges="E15 E24"/>
    </vehicle>
    <vehicle id="first_flow_1.2" type="slow_car" depart="57.14">
        <route edges="E10 E11 E28 E29"/>
    </vehicle>
    <vehicle id="first_flow_3.1" type="fast_car" depart="58.82">
        <route edges="E25 E26 E27 E12 E13 E14"/>
    </vehicle>
    <vehicle id="first_flow_0.2" type="slow_car" depart="59.40">
        <route edges="E5 E6 E7 E32 E33 E34"/>
    </vehicle>
    <vehicle id="first_flow_2.3" type="slow_car" depart="82.57">
        <route edges="E15 E24"/>
    </vehicle>
    <vehicle id="first_flow_1.3" type="slow_car" depart="85.71">
        <route edges="E10 E11 E28 E29"/>
    </vehicle>
    <vehicle id="first_flow_0.3" type="slow_car" depart="89.11">
        <route edges="E5 E6 E7 E32 E33 E34"/>
    </vehicle>
    <vehicle id="first_flow_5.2" type="fast_car" depart="101.69">
        <route edges="E35 E4"/>
    </vehicle>
    <vehicle id="first_flow_4.2" type="fast_car" depart="109.09">
        <route edges="E30 E31 E8 E9"/>
    </vehicle>
    <vehicle id="first_flow_2.4" type="slow_car" depart="110.09">
        <route edges="E15 E24"/>
    </vehicle>
    <vehicle id="first_flow_1.4" type="slow_car" depart="114.28">
        <route edges="E10 E11 E28 E29"/>
    </vehicle>
    <vehicle id="first_flow_3.2" type="fast_car" depart="117.65">
        <route edges="E25 E26 E27 E12 E13 E14"/>
    </vehicle>
    <vehicle id="first_flow_0.4" type="slow_car" depart="118.81">
        <route edges="E5 E6 E7 E32 E33 E34"/>
    </vehicle>
    <vehicle id="first_flow_2.5" type="slow_car" depart="137.61">
        <route edges="E15 E24"/>
    </vehicle>
    <vehicle id="first_flow_1.5" type="slow_car" depart="142.86">
        <route edges="E10 E11 E28 E29"/>
    </vehicle>
    <vehicle id="first_flow_0.5" type="slow_car" depart="148.51">
        <route edges="E5 E6 E7 E32 E33 E34"/>
    </vehicle>
    <vehicle id="first_flow_5.3" type="fast_car" depart="152.54">
        <route edges="E35 E4"/>
    </vehicle>
    <vehicle id="first_flow_4.3" type="fast_car" depart="163.64">
        <route edges="E30 E31 E8 E9"/>
    </vehicle>
    <vehicle id="first_flow_2.6" type="slow_car" depart="165.13">
        <route edges="E15 E24"/>
    </vehicle>
    <vehicle id="first_flow_1.6" type="slow_car" depart="171.43">
        <route edges="E10 E11 E28 E29"/>
    </vehicle>
    <vehicle id="first_flow_3.3" type="fast_car" depart="176.47">
        <route edges="E25 E26 E27 E12 E13 E14"/>
    </vehicle>
    <vehicle id="first_flow_0.6" type="slow_car" depart="178.21">
        <route edges="E5 E6 E7 E32 E33 E34"/>
    </vehicle>
    <vehicle id="first_flow_2.7" type="slow_car" depart="192.65">
        <route edges="E15 E24"/>
    </vehicle>
    <vehicle id="first_flow_1.7" type="slow_car" depart="200.00">
        <route edges="E10 E11 E28 E29"/>
    </vehicle>
    <vehicle id="first_flow_5.4" type="fast_car" depart="203.39">
        <route edges="E35 E4"/>
    </vehicle>
    <vehicle id="first_flow_0.7" type="slow_car" depart="207.91">
        <route edges="E5 E6 E7 E32 E33 E34"/>
    </vehicle>
    <vehicle id="first_flow_4.4" type="fast_car" depart="218.18">
        <route edges="E30 E31 E8 E9"/>
    </vehicle>
    <vehicle id="first_flow_2.8" type="slow_car" depart="220.18">
        <route edges="E15 E24"/>
    </vehicle>
    <vehicle id="first_flow_1.8" type="slow_car" depart="228.57">
        <route edges="E10 E11 E28 E29"/>
    </vehicle>
    <vehicle id="first_flow_3.4" type="fast_car" depart="235.29">
        <route edges="E25 E26 E27 E12 E13 E14"/>
    </vehicle>
    <vehicle id="first_flow_0.8" type="slow_car" depart="237.62">
        <route edges="E5 E6 E7 E32 E33 E34"/>
    </vehicle>
    <vehicle id="first_flow_2.9" type="slow_car" depart="247.70">
        <route edges="E15 E24"/>
    </vehicle>
    <vehicle id="first_flow_5.5" type="fast_car" depart="254.24">
        <route edges="E35 E4"/>
    </vehicle>
    <vehicle id="first_flow_1.9" type="slow_car" depart="257.14">
        <route edges="E10 E11 E28 E29"/>
    </vehicle>
    <vehicle id="first_flow_0.9" type="slow_car" depart="267.32">
        <route edges="E5 E6 E7 E32 E33 E34"/>
    </vehicle>
    <vehicle id="first_flow_4.5" type="fast_car" depart="272.73">
        <route edges="E30 E31 E8 E9"/>
    </vehicle>
    <vehicle id="first_flow_2.10" type="slow_car" depart="275.22">
        <route edges="E15 E24"/>
    </vehicle>
    <vehicle id="first_flow_1.10" type="slow_car" depart="285.71">
        <route edges="E10 E11 E28 E29"/>
    </vehicle>
    <vehicle id="first_flow_3.5" type="fast_car" depart="294.12">
        <route edges="E25 E26 E27 E12 E13 E14"/>
    </vehicle>
    <vehicle id="first_flow_0.10" type="slow_car" depart="297.02">
        <route edges="E5 E6 E7 E32 E33 E34"/>
    </vehicle>
    <vehicle id="first_flow_2.11" type="slow_car" depart="302.74">
        <route edges="E15 E24"/>
    </vehicle>
    <vehicle id="first_flow_5.6" type="fast_car" depart="305.08">
        <route edges="E35 E4"/>
    </vehicle>
    <vehicle id="first_flow_1.11" type="slow_car" depart="314.28">
        <route edges="E10 E11 E28 E29"/>
    </vehicle>
    <vehicle id="first_flow_0.11" type="slow_car" depart="326.72">
        <route edges="E5 E6 E7 E32 E33 E34"/>
    </vehicle>
    <vehicle id="first_flow_4.6" type="fast_car" depart="327.27">
        <route edges="E30 E31 E8 E9"/>
    </vehicle>
    <vehicle id="first_flow_2.12" type="slow_car" depart="330.26">
        <route edges="E15 E24"/>
    </vehicle>
    <vehicle id="first_flow_1.12" type="slow_car" depart="342.85">
        <route edges="E10 E11 E28 E29"/>
    </vehicle>
    <vehicle id="first_flow_3.6" type="fast_car" depart="352.94">
        <route edges="E25 E26 E27 E12 E13 E14"/>
    </vehicle>
    <vehicle id="first_flow_5.7" type="fast_car" depart="355.93">
        <route edges="E35 E4"/>
    </vehicle>
    <vehicle id="first_flow_0.12" type="slow_car" depart="356.42">
        <route edges="E5 E6 E7 E32 E33 E34"/>
    </vehicle>
    <vehicle id="first_flow_2.13" type="slow_car" depart="357.79">
        <route edges="E15 E24"/>
    </vehicle>
    <vehicle id="first_flow_1.13" type="slow_car" depart="371.42">
        <route edges="E10 E11 E28 E29"/>
    </vehicle>
    <vehicle id="first_flow_4.7" type="fast_car" depart="381.82">
        <route edges="E30 E31 E8 E9"/>
    </vehicle>
    <vehicle id="first_flow_2.14" type="slow_car" depart="385.31">
        <route edges="E15 E24"/>
    </vehicle>
    <vehicle id="first_flow_0.13" type="slow_car" depart="386.13">
        <route edges="E5 E6 E7 E32 E33 E34"/>
    </vehicle>
    <vehicle id="first_flow_1.14" type="slow_car" depart="399.99">
        <route edges="E10 E11 E28 E29"/>
    </vehicle>
    <vehicle id="first_flow_5.8" type="fast_car" depart="406.78">
        <route edges="E35 E4"/>
    </vehicle>
    <vehicle id="first_flow_3.7" type="fast_car" depart="411.76">
        <route edges="E25 E26 E27 E12 E13 E14"/>
    </vehicle>
    <vehicle id="first_flow_2.15" type="slow_car" depart="412.83">
        <route edges="E15 E24"/>
    </vehicle>
    <vehicle id="first_flow_0.14" type="slow_car" depart="415.83">
        <route edges="E5 E6 E7 E32 E33 E34"/>
    </vehicle>
    <vehicle id="first_flow_1.15" type="slow_car" depart="428.57">
        <route edges="E10 E11 E28 E29"/>
    </vehicle>
    <vehicle id="first_flow_4.8" type="fast_car" depart="436.36">
        <route edges="E30 E31 E8 E9"/>
    </vehicle>
    <vehicle id="first_flow_2.16" type="slow_car" depart="440.35">
        <route edges="E15 E24"/>
    </vehicle>
    <vehicle id="first_flow_0.15" type="slow_car" depart="445.53">
        <route edges="E5 E6 E7 E32 E33 E34"/>
    </vehicle>
    <vehicle id="first_flow_1.16" type="slow_car" depart="457.14">
        <route edges="E10 E11 E28 E29"/>
    </vehicle>
    <vehicle id="first_flow_5.9" type="fast_car" depart="457.62">
        <route edges="E35 E4"/>
    </vehicle>
    <vehicle id="first_flow_2.17" type="slow_car" depart="467.87">
        <route edges="E15 E24"/>
    </vehicle>
    <vehicle id="first_flow_3.8" type="fast_car" depart="470.58">
        <route edges="E25 E26 E27 E12 E13 E14"/>
    </vehicle>
    <vehicle id="first_flow_0.16" type="slow_car" depart="475.23">
        <route edges="E5 E6 E7 E32 E33 E34"/>
    </vehicle>
    <vehicle id="first_flow_1.17" type="slow_car" depart="485.71">
        <route edges="E10 E11 E28 E29"/>
    </vehicle>
    <vehicle id="first_flow_4.9" type="fast_car" depart="490.91">
        <route edges="E30 E31 E8 E9"/>
    </vehicle>
    <vehicle id="first_flow_2.18" type="slow_car" depart="495.40">
        <route edges="E15 E24"/>
    </vehicle>
    <vehicle id="first_flow_0.17" type="slow_car" depart="504.93">
        <route edges="E5 E6 E7 E32 E33 E34"/>
    </vehicle>
    <vehicle id="first_flow_5.10" type="fast_car" depart="508.47">
        <route edges="E35 E4"/>
    </vehicle>
    <vehicle id="first_flow_1.18" type="slow_car" depart="514.28">
        <route edges="E10 E11 E28 E29"/>
    </vehicle>
    <vehicle id="first_flow_2.19" type="slow_car" depart="522.92">
        <route edges="E15 E24"/>
    </vehicle>
    <vehicle id="first_flow_3.9" type="fast_car" depart="529.41">
        <route edges="E25 E26 E27 E12 E13 E14"/>
    </vehicle>
    <vehicle id="first_flow_0.18" type="slow_car" depart="534.64">
        <route edges="E5 E6 E7 E32 E33 E34"/>
    </vehicle>
    <vehicle id="first_flow_1.19" type="slow_car" depart="542.85">
        <route edges="E10 E11 E28 E29"/>
    </vehicle>
    <vehicle id="first_flow_4.10" type="fast_car" depart="545.45">
        <route edges="E30 E31 E8 E9"/>
    </vehicle>
    <vehicle id="first_flow_2.20" type="slow_car" depart="550.44">
        <route edges="E15 E24"/>
    </vehicle>
    <vehicle id="first_flow_5.11" type="fast_car" depart="559.32">
        <route edges="E35 E4"/>
    </vehicle>
    <vehicle id="first_flow_0.19" type="slow_car" depart="564.34">
        <route edges="E5 E6 E7 E32 E33 E34"/>
    </vehicle>
    <vehicle id="first_flow_1.20" type="slow_car" depart="571.42">
        <route edges="E10 E11 E28 E29"/>
    </vehicle>
    <vehicle id="first_flow_2.21" type="slow_car" depart="577.96">
        <route edges="E15 E24"/>
    </vehicle>
    <vehicle id="first_flow_3.10" type="fast_car" depart="588.23">
        <route edges="E25 E26 E27 E12 E13 E14"/>
    </vehicle>
    <vehicle id="first_flow_0.20" type="slow_car" depart="594.04">
        <route edges="E5 E6 E7 E32 E33 E34"/>
    </vehicle>
    <vehicle id="first_flow_1.21" type="slow_car" depart="599.99">
        <route edges="E10 E11 E28 E29"/>
    </vehicle>
    <vehicle id="first_flow_4.11" type="fast_car" depart="600.00">
        <route edges="E30 E31 E8 E9"/>
    </vehicle>
    <vehicle id="first_flow_2.22" type="slow_car" depart="605.48">
        <route edges="E15 E24"/>
    </vehicle>
    <vehicle id="first_flow_5.12" type="fast_car" depart="610.16">
        <route edges="E35 E4"/>
    </vehicle>
    <vehicle id="first_flow_0.21" type="slow_car" depart="623.74">
        <route edges="E5 E6 E7 E32 E33 E34"/>
    </vehicle>
    <vehicle id="first_flow_1.22" type="slow_car" depart="628.56">
        <route edges="E10 E11 E28 E29"/>
    </vehicle>
    <vehicle id="first_flow_2.23" type="slow_car" depart="633.01">
        <route edges="E15 E24"/>
    </vehicle>
    <vehicle id="first_flow_3.11" type="fast_car" depart="647.05">
        <route edges="E25 E26 E27 E12 E13 E14"/>
    </vehicle>
    <vehicle id="first_flow_0.22" type="slow_car" depart="653.44">
        <route edges="E5 E6 E7 E32 E33 E34"/>
    </vehicle>
    <vehicle id="first_flow_4.12" type="fast_car" depart="654.54">
        <route edges="E30 E31 E8 E9"/>
    </vehicle>
    <vehicle id="first_flow_1.23" type="slow_car" depart="657.13">
        <route edges="E10 E11 E28 E29"/>
    </vehicle>
    <vehicle id="first_flow_2.24" type="slow_car" depart="660.53">
        <route edges="E15 E24"/>
    </vehicle>
    <vehicle id="first_flow_5.13" type="fast_car" depart="661.01">
        <route edges="E35 E4"/>
    </vehicle>
    <vehicle id="first_flow_0.23" type="slow_car" depart="683.15">
        <route edges="E5 E6 E7 E32 E33 E34"/>
    </vehicle>
    <vehicle id="first_flow_1.24" type="slow_car" depart="685.70">
        <route edges="E10 E11 E28 E29"/>
    </vehicle>
    <vehicle id="first_flow_2.25" type="slow_car" depart="688.05">
        <route edges="E15 E24"/>
    </vehicle>
    <vehicle id="first_flow_3.12" type="fast_car" depart="705.88">
        <route edges="E25 E26 E27 E12 E13 E14"/>
    </vehicle>
    <vehicle id="first_flow_4.13" type="fast_car" depart="709.09">
        <route edges="E30 E31 E8 E9"/>
    </vehicle>
    <vehicle id="first_flow_5.14" type="fast_car" depart="711.86">
        <route edges="E35 E4"/>
    </vehicle>
    <vehicle id="first_flow_0.24" type="slow_car" depart="712.85">
        <route edges="E5 E6 E7 E32 E33 E34"/>
    </vehicle>
    <vehicle id="first_flow_1.25" type="slow_car" depart="714.28">
        <route edges="E10 E11 E28 E29"/>
    </vehicle>
    <vehicle id="first_flow_2.26" type="slow_car" depart="715.57">
        <route edges="E15 E24"/>
    </vehicle>
    <vehicle id="first_flow_0.25" type="slow_car" depart="742.55">
        <route edges="E5 E6 E7 E32 E33 E34"/>
    </vehicle>
    <vehicle id="first_flow_1.26" type="slow_car" depart="742.85">
        <route edges="E10 E11 E28 E29"/>
    </vehicle>
    <vehicle id="first_flow_2.27" type="slow_car" depart="743.09">
        <route edges="E15 E24"/>
    </vehicle>
    <vehicle id="first_flow_5.15" type="fast_car" depart="762.71">
        <route edges="E35 E4"/>
    </vehicle>
    <vehicle id="first_flow_4.14" type="fast_car" depart="763.63">
        <route edges="E30 E31 E8 E9"/>
    </vehicle>
    <vehicle id="first_flow_3.13" type="fast_car" depart="764.70">
        <route edges="E25 E26 E27 E12 E13 E14"/>
    </vehicle>
    <vehicle id="first_flow_2.28" type="slow_car" depart="770.62">
        <route edges="E15 E24"/>
    </vehicle>
    <vehicle id="first_flow_1.27" type="slow_car" depart="771.42">
        <route edges="E10 E11 E28 E29"/>
    </vehicle>
    <vehicle id="first_flow_0.26" type="slow_car" depart="772.25">
        <route edges="E5 E6 E7 E32 E33 E34"/>
    </vehicle>
    <vehicle id="first_flow_2.29" type="slow_car" depart="798.14">
        <route edges="E15 E24"/>
    </vehicle>
    <vehicle id="first_flow_1.28" type="slow_car" depart="799.99">
        <route edges="E10 E11 E28 E29"/>
    </vehicle>
    <vehicle id="first_flow_0.27" type="slow_car" depart="801.95">
        <route edges="E5 E6 E7 E32 E33 E34"/>
    </vehicle>
    <vehicle id="first_flow_5.16" type="fast_car" depart="813.55">
        <route edges="E35 E4"/>
    </vehicle>
    <vehicle id="first_flow_4.15" type="fast_car" depart="818.18">
        <route edges="E30 E31 E8 E9"/>
    </vehicle>
    <vehicle id="first_flow_3.14" type="fast_car" depart="823.52">
        <route edges="E25 E26 E27 E12 E13 E14"/>
    </vehicle>
    <vehicle id="first_flow_2.30" type="slow_car" depart="825.66">
        <route edges="E15 E24"/>
    </vehicle>
    <vehicle id="first_flow_1.29" type="slow_car" depart="828.56">
        <route edges="E10 E11 E28 E29"/>
    </vehicle>
    <vehicle id="first_flow_0.28" type="slow_car" depart="831.66">
        <route edges="E5 E6 E7 E32 E33 E34"/>
    </vehicle>
    <vehicle id="first_flow_2.31" type="slow_car" depart="853.18">
        <route edges="E15 E24"/>
    </vehicle>
    <vehicle id="first_flow_1.30" type="slow_car" depart="857.13">
        <route edges="E10 E11 E28 E29"/>
    </vehicle>
    <vehicle id="first_flow_0.29" type="slow_car" depart="861.36">
        <route edges="E5 E6 E7 E32 E33 E34"/>
    </vehicle>
    <vehicle id="first_flow_5.17" type="fast_car" depart="864.40">
        <route edges="E35 E4"/>
    </vehicle>
    <vehicle id="first_flow_4.16" type="fast_car" depart="872.72">
        <route edges="E30 E31 E8 E9"/>
    </vehicle>
    <vehicle id="first_flow_2.32" type="slow_car" depart="880.70">
        <route edges="E15 E24"/>
    </vehicle>
    <vehicle id="first_flow_3.15" type="fast_car" depart="882.35">
        <route edges="E25 E26 E27 E12 E13 E14"/>
    </vehicle>
    <vehicle id="first_flow_1.31" type="slow_car" depart="885.70">
        <route edges="E10 E11 E28 E29"/>
    </vehicle>
    <vehicle id="first_flow_0.30" type="slow_car" depart="891.06">
        <route edges="E5 E6 E7 E32 E33 E34"/>
    </vehicle>
    <vehicle id="first_flow_2.33" type="slow_car" depart="908.23">
        <route edges="E15 E24"/>
    </vehicle>
    <vehicle id="first_flow_1.32" type="slow_car" depart="914.27">
        <route edges="E10 E11 E28 E29"/>
    </vehicle>
    <vehicle id="first_flow_5.18" type="fast_car" depart="915.25">
        <route edges="E35 E4"/>
    </vehicle>
    <vehicle id="first_flow_0.31" type="slow_car" depart="920.76">
        <route edges="E5 E6 E7 E32 E33 E34"/>
    </vehicle>
    <vehicle id="first_flow_4.17" type="fast_car" depart="927.27">
        <route edges="E30 E31 E8 E9"/>
    </vehicle>
    <vehicle id="first_flow_2.34" type="slow_car" depart="935.75">
        <route edges="E15 E24"/>
    </vehicle>
    <vehicle id="first_flow_3.16" type="fast_car" depart="941.17">
        <route edges="E25 E26 E27 E12 E13 E14"/>
    </vehicle>
    <vehicle id="first_flow_1.33" type="slow_car" depart="942.84">
        <route edges="E10 E11 E28 E29"/>
    </vehicle>
    <vehicle id="first_flow_0.32" type="slow_car" depart="950.46">
        <route edges="E5 E6 E7 E32 E33 E34"/>
    </vehicle>
    <vehicle id="first_flow_2.35" type="slow_car" depart="963.27">
        <route edges="E15 E24"/>
    </vehicle>
    <vehicle id="first_flow_5.19" type="fast_car" depart="966.09">
        <route edges="E35 E4"/>
    </vehicle>
    <vehicle id="first_flow_1.34" type="slow_car" depart="971.41">
        <route edges="E10 E11 E28 E29"/>
    </vehicle>
    <vehicle id="first_flow_0.33" type="slow_car" depart="980.17">
        <route edges="E5 E6 E7 E32 E33 E34"/>
    </vehicle>
    <vehicle id="first_flow_4.18" type="fast_car" depart="981.81">
        <route edges="E30 E31 E8 E9"/>
    </vehicle>
    <vehicle id="first_flow_2.36" type="slow_car" depart="990.79">
        <route edges="E15 E24"/>
    </vehicle>
    <vehicle id="first_flow_1.35" type="slow_car" depart="999.99">
        <route edges="E10 E11 E28 E29"/>
    </vehicle>
    <vehicle id="first_flow_3.17" type="fast_car" depart="999.99">
        <route edges="E25 E26 E27 E12 E13 E14"/>
    </vehicle>
    <vehicle id="first_flow_0.34" type="slow_car" depart="1009.87">
        <route edges="E5 E6 E7 E32 E33 E34"/>
    </vehicle>
    <vehicle id="first_flow_5.20" type="fast_car" depart="1016.94">
        <route edges="E35 E4"/>
    </vehicle>
    <vehicle id="first_flow_2.37" type="slow_car" depart="1018.31">
        <route edges="E15 E24"/>
    </vehicle>
    <vehicle id="first_flow_1.36" type="slow_car" depart="1028.56">
        <route edges="E10 E11 E28 E29"/>
    </vehicle>
    <vehicle id="first_flow_4.19" type="fast_car" depart="1036.36">
        <route edges="E30 E31 E8 E9"/>
    </vehicle>
    <vehicle id="first_flow_0.35" type="slow_car" depart="1039.57">
        <route edges="E5 E6 E7 E32 E33 E34"/>
    </vehicle>
    <vehicle id="first_flow_2.38" type="slow_car" depart="1045.84">
        <route edges="E15 E24"/>
    </vehicle>
    <vehicle id="first_flow_1.37" type="slow_car" depart="1057.13">
        <route edges="E10 E11 E28 E29"/>
    </vehicle>
    <vehicle id="first_flow_3.18" type="fast_car" depart="1058.81">
        <route edges="E25 E26 E27 E12 E13 E14"/>
    </vehicle>
    <vehicle id="first_flow_5.21" type="fast_car" depart="1067.79">
        <route edges="E35 E4"/>
    </vehicle>
    <vehicle id="first_flow_0.36" type="slow_car" depart="1069.27">
        <route edges="E5 E6 E7 E32 E33 E34"/>
    </vehicle>
    <vehicle id="first_flow_2.39" type="slow_car" depart="1073.36">
        <route edges="E15 E24"/>
    </vehicle>
    <vehicle id="first_flow_1.38" type="slow_car" depart="1085.70">
        <route edges="E10 E11 E28 E29"/>
    </vehicle>
    <vehicle id="first_flow_4.20" type="fast_car" depart="1090.90">
        <route edges="E30 E31 E8 E9"/>
    </vehicle>
    <vehicle id="first_flow_0.37" type="slow_car" depart="1098.97">
        <route edges="E5 E6 E7 E32 E33 E34"/>
    </vehicle>
    <vehicle id="first_flow_2.40" type="slow_car" depart="1100.88">
        <route edges="E15 E24"/>
    </vehicle>
    <vehicle id="first_flow_1.39" type="slow_car" depart="1114.27">
        <route edges="E10 E11 E28 E29"/>
    </vehicle>
    <vehicle id="first_flow_3.19" type="fast_car" depart="1117.64">
        <route edges="E25 E26 E27 E12 E13 E14"/>
    </vehicle>
    <vehicle id="first_flow_5.22" type="fast_car" depart="1118.63">
        <route edges="E35 E4"/>
    </vehicle>
    <vehicle id="first_flow_2.41" type="slow_car" depart="1128.40">
        <route edges="E15 E24"/>
    </vehicle>
    <vehicle id="first_flow_0.38" type="slow_car" depart="1128.68">
        <route edges="E5 E6 E7 E32 E33 E34"/>
    </vehicle>
    <vehicle id="first_flow_1.40" type="slow_car" depart="1142.84">
        <route edges="E10 E11 E28 E29"/>
    </vehicle>
    <vehicle id="first_flow_4.21" type="fast_car" depart="1145.45">
        <route edges="E30 E31 E8 E9"/>
    </vehicle>
    <vehicle id="first_flow_2.42" type="slow_car" depart="1155.92">
        <route edges="E15 E24"/>
    </vehicle>
    <vehicle id="first_flow_0.39" type="slow_car" depart="1158.38">
        <route edges="E5 E6 E7 E32 E33 E34"/>
    </vehicle>
    <vehicle id="first_flow_5.23" type="fast_car" depart="1169.48">
        <route edges="E35 E4"/>
    </vehicle>
    <vehicle id="first_flow_1.41" type="slow_car" depart="1171.41">
        <route edges="E10 E11 E28 E29"/>
    </vehicle>
    <vehicle id="first_flow_3.20" type="fast_car" depart="1176.46">
        <route edges="E25 E26 E27 E12 E13 E14"/>
    </vehicle>
    <vehicle id="first_flow_2.43" type="slow_car" depart="1183.45">
        <route edges="E15 E24"/>
    </vehicle>
    <vehicle id="first_flow_0.40" type="slow_car" depart="1188.08">
        <route edges="E5 E6 E7 E32 E33 E34"/>
    </vehicle>
    <vehicle id="first_flow_1.42" type="slow_car" depart="1199.98">
        <route edges="E10 E11 E28 E29"/>
    </vehicle>
    <vehicle id="first_flow_4.22" type="fast_car" depart="1199.99">
        <route edges="E30 E31 E8 E9"/>
    </vehicle>
    <vehicle id="first_flow_2.44" type="slow_car" depart="1210.97">
        <route edges="E15 E24"/>
    </vehicle>
    <vehicle id="first_flow_0.41" type="slow_car" depart="1217.78">
        <route edges="E5 E6 E7 E32 E33 E34"/>
    </vehicle>
    <vehicle id="first_flow_5.24" type="fast_car" depart="1220.33">
        <route edges="E35 E4"/>
    </vehicle>
    <vehicle id="first_flow_1.43" type="slow_car" depart="1228.55">
        <route edges="E10 E11 E28 E29"/>
    </vehicle>
    <vehicle id="first_flow_3.21" type="fast_car" depart="1235.28">
        <route edges="E25 E26 E27 E12 E13 E14"/>
    </vehicle>
    <vehicle id="first_flow_2.45" type="slow_car" depart="1238.49">
        <route edges="E15 E24"/>
    </vehicle>
    <vehicle id="first_flow_0.42" type="slow_car" depart="1247.48">
        <route edges="E5 E6 E7 E32 E33 E34"/>
    </vehicle>
    <vehicle id="first_flow_4.23" type="fast_car" depart="1254.54">
        <route edges="E30 E31 E8 E9"/>
    </vehicle>
    <vehicle id="first_flow_1.44" type="slow_car" depart="1257.12">
        <route edges="E10 E11 E28 E29"/>
    </vehicle>
    <vehicle id="first_flow_2.46" type="slow_car" depart="1266.01">
        <route edges="E15 E24"/>
    </vehicle>
    <vehicle id="first_flow_5.25" type="fast_car" depart="1271.18">
        <route edges="E35 E4"/>
    </vehicle>
    <vehicle id="first_flow_0.43" type="slow_car" depart="1277.19">
        <route edges="E5 E6 E7 E32 E33 E34"/>
    </vehicle>
    <vehicle id="first_flow_1.45" type="slow_car" depart="1285.70">
        <route edges="E10 E11 E28 E29"/>
    </vehicle>
    <vehicle id="first_flow_2.47" type="slow_car" depart="1293.53">
        <route edges="E15 E24"/>
    </vehicle>
    <vehicle id="first_flow_3.22" type="fast_car" depart="1294.11">
        <route edges="E25 E26 E27 E12 E13 E14"/>
    </vehicle>
    <vehicle id="first_flow_0.44" type="slow_car" depart="1306.89">
        <route edges="E5 E6 E7 E32 E33 E34"/>
    </vehicle>
    <vehicle id="first_flow_4.24" type="fast_car" depart="1309.08">
        <route edges="E30 E31 E8 E9"/>
    </vehicle>
    <vehicle id="first_flow_1.46" type="slow_car" depart="1314.27">
        <route edges="E10 E11 E28 E29"/>
    </vehicle>
    <vehicle id="first_flow_2.48" type="slow_car" depart="1321.06">
        <route edges="E15 E24"/>
    </vehicle>
    <vehicle id="first_flow_5.26" type="fast_car" depart="1322.02">
        <route edges="E35 E4"/>
    </vehicle>
    <vehicle id="first_flow_0.45" type="slow_car" depart="1336.59">
        <route edges="E5 E6 E7 E32 E33 E34"/>
    </vehicle>
    <vehicle id="first_flow_1.47" type="slow_car" depart="1342.84">
        <route edges="E10 E11 E28 E29"/>
    </vehicle>
    <vehicle id="first_flow_2.49" type="slow_car" depart="1348.58">
        <route edges="E15 E24"/>
    </vehicle>
    <vehicle id="first_flow_3.23" type="fast_car" depart="1352.93">
        <route edges="E25 E26 E27 E12 E13 E14"/>
    </vehicle>
    <vehicle id="first_flow_4.25" type="fast_car" depart="1363.63">
        <route edges="E30 E31 E8 E9"/>
    </vehicle>
    <vehicle id="first_flow_0.46" type="slow_car" depart="1366.29">
        <route edges="E5 E6 E7 E32 E33 E34"/>
    </vehicle>
    <vehicle id="first_flow_1.48" type="slow_car" depart="1371.41">
        <route edges="E10 E11 E28 E29"/>
    </vehicle>
    <vehicle id="first_flow_5.27" type="fast_car" depart="1372.87">
        <route edges="E35 E4"/>
    </vehicle>
    <vehicle id="first_flow_2.50" type="slow_car" depart="1376.10">
        <route edges="E15 E24"/>
    </vehicle>
    <vehicle id="first_flow_0.47" type="slow_car" depart="1395.99">
        <route edges="E5 E6 E7 E32 E33 E34"/>
    </vehicle>
    <vehicle id="first_flow_1.49" type="slow_car" depart="1399.98">
        <route edges="E10 E11 E28 E29"/>
    </vehicle>
    <vehicle id="first_flow_2.51" type="slow_car" depart="1403.62">
        <route edges="E15 E24"/>
    </vehicle>
    <vehicle id="first_flow_3.24" type="fast_car" depart="1411.75">
        <route edges="E25 E26 E27 E12 E13 E14"/>
    </vehicle>
    <vehicle id="first_flow_4.26" type="fast_car" depart="1418.17">
        <route edges="E30 E31 E8 E9"/>
    </vehicle>
    <vehicle id="first_flow_5.28" type="fast_car" depart="1423.72">
        <route edges="E35 E4"/>
    </vehicle>
    <vehicle id="first_flow_0.48" type="slow_car" depart="1425.70">
        <route edges="E5 E6 E7 E32 E33 E34"/>
    </vehicle>
    <vehicle id="first_flow_1.50" type="slow_car" depart="1428.55">
        <route edges="E10 E11 E28 E29"/>
    </vehicle>
    <vehicle id="first_flow_2.52" type="slow_car" depart="1431.14">
        <route edges="E15 E24"/>
    </vehicle>
    <vehicle id="first_flow_0.49" type="slow_car" depart="1455.40">
        <route edges="E5 E6 E7 E32 E33 E34"/>
    </vehicle>
    <vehicle id="first_flow_1.51" type="slow_car" depart="1457.12">
        <route edges="E10 E11 E28 E29"/>
    </vehicle>
    <vehicle id="first_flow_2.53" type="slow_car" depart="1458.67">
        <route edges="E15 E24"/>
    </vehicle>
    <vehicle id="first_flow_3.25" type="fast_car" depart="1470.58">
        <route edges="E25 E26 E27 E12 E13 E14"/>
    </vehicle>
    <vehicle id="first_flow_4.27" type="fast_car" depart="1472.72">
        <route edges="E30 E31 E8 E9"/>
    </vehicle>
    <vehicle id="first_flow_5.29" type="fast_car" depart="1474.56">
        <route edges="E35 E4"/>
    </vehicle>